
#======================================================================
# CRYSTAL DATA
#----------------------------------------------------------------------
data_VESTA_phase_1

_chemical_name_common                  'Lu12 Fe12 O36'
_cell_length_a                         20.889103
_cell_length_b                         23.482859
_cell_length_c                         6.030165
_cell_angle_alpha                      90.000000
_cell_angle_beta                       90.000000
_cell_angle_gamma                      90.000000
_cell_volume                           2958.012220
_space_group_name_H-M_alt              'P 1'
_space_group_IT_number                 1

loop_
_space_group_symop_operation_xyz
   'x, y, z'

loop_
   _atom_site_label
   _atom_site_occupancy
   _atom_site_fract_x
   _atom_site_fract_y
   _atom_site_fract_z
   _atom_site_adp_type
   _atom_site_U_iso_or_equiv
   _atom_site_type_symbol
   Lu1        1.0     0.000000     0.111736     0.000000    Uiso  ? Lu
   Lu2        1.0     0.000000     0.611736     0.000000    Uiso  ? Lu
   Lu3        1.0     0.500000     0.111736     0.000000    Uiso  ? Lu
   Lu4        1.0     0.500000     0.611736     0.000000    Uiso  ? Lu
   Lu5        1.0     0.000000     0.361737     0.000000    Uiso  ? Lu
   Lu6        1.0     0.000000     0.861737     0.000000    Uiso  ? Lu
   Lu7        1.0     0.500000     0.361737     0.000000    Uiso  ? Lu
   Lu8        1.0     0.500000     0.861737     0.000000    Uiso  ? Lu
   Lu9        1.0     0.166666     0.383404     0.000000    Uiso  ? Lu
   Lu10       1.0     0.166666     0.883404     0.000000    Uiso  ? Lu
   Lu11       1.0     0.666666     0.383404     0.000000    Uiso  ? Lu
   Lu12       1.0     0.666666     0.883404     0.000000    Uiso  ? Lu
   Lu13       1.0     0.083333     0.133403     0.500000    Uiso  ? Lu
   Lu14       1.0     0.083333     0.633403     0.500000    Uiso  ? Lu
   Lu15       1.0     0.583333     0.133403     0.500000    Uiso  ? Lu
   Lu16       1.0     0.583333     0.633403     0.500000    Uiso  ? Lu
   Lu17       1.0     0.166666     0.133403     0.000000    Uiso  ? Lu
   Lu18       1.0     0.166666     0.633403     0.000000    Uiso  ? Lu
   Lu19       1.0     0.666666     0.133403     0.000000    Uiso  ? Lu
   Lu20       1.0     0.666666     0.633403     0.000000    Uiso  ? Lu
   Lu21       1.0     0.083333     0.383404     0.500000    Uiso  ? Lu
   Lu22       1.0     0.083333     0.883404     0.500000    Uiso  ? Lu
   Lu23       1.0     0.583333     0.383404     0.500000    Uiso  ? Lu
   Lu24       1.0     0.583333     0.883404     0.500000    Uiso  ? Lu
   Lu25       1.0     0.333333     0.133403     0.000000    Uiso  ? Lu
   Lu26       1.0     0.333333     0.633403     0.000000    Uiso  ? Lu
   Lu27       1.0     0.833333     0.133403     0.000000    Uiso  ? Lu
   Lu28       1.0     0.833333     0.633403     0.000000    Uiso  ? Lu
   Lu29       1.0     0.333333     0.383404     0.000000    Uiso  ? Lu
   Lu30       1.0     0.333333     0.883404     0.000000    Uiso  ? Lu
   Lu31       1.0     0.833333     0.383404     0.000000    Uiso  ? Lu
   Lu32       1.0     0.833333     0.883404     0.000000    Uiso  ? Lu
   Lu33       1.0     0.250000     0.111736     0.500000    Uiso  ? Lu
   Lu34       1.0     0.250000     0.611736     0.500000    Uiso  ? Lu
   Lu35       1.0     0.750000     0.111736     0.500000    Uiso  ? Lu
   Lu36       1.0     0.750000     0.611736     0.500000    Uiso  ? Lu
   Lu37       1.0     0.250000     0.361737     0.500000    Uiso  ? Lu
   Lu38       1.0     0.250000     0.861737     0.500000    Uiso  ? Lu
   Lu39       1.0     0.750000     0.361737     0.500000    Uiso  ? Lu
   Lu40       1.0     0.750000     0.861737     0.500000    Uiso  ? Lu
   Lu41       1.0     0.416667     0.383404     0.500000    Uiso  ? Lu
   Lu42       1.0     0.416667     0.883404     0.500000    Uiso  ? Lu
   Lu43       1.0     0.916667     0.383404     0.500000    Uiso  ? Lu
   Lu44       1.0     0.916667     0.883404     0.500000    Uiso  ? Lu
   Lu45       1.0     0.416667     0.133403     0.500000    Uiso  ? Lu
   Lu46       1.0     0.416667     0.633403     0.500000    Uiso  ? Lu
   Lu47       1.0     0.916667     0.133403     0.500000    Uiso  ? Lu
   Lu48       1.0     0.916667     0.633403     0.500000    Uiso  ? Lu
   Fe1        1.0     0.000000     0.249410     0.666023    Uiso  ? Fe
   Fe2        1.0     0.000000     0.749410     0.666023    Uiso  ? Fe
   Fe3        1.0     0.500000     0.249410     0.666023    Uiso  ? Fe
   Fe4        1.0     0.500000     0.749410     0.666023    Uiso  ? Fe
   Fe5        1.0     0.166506     0.499411     0.333012    Uiso  ? Fe
   Fe6        1.0     0.166506     0.999411     0.333012    Uiso  ? Fe
   Fe7        1.0     0.666506     0.499411     0.333012    Uiso  ? Fe
   Fe8        1.0     0.666506     0.999411     0.333012    Uiso  ? Fe
   Fe9        1.0     0.000000     0.499411     0.333977    Uiso  ? Fe
   Fe10       1.0     0.000000     0.999411     0.333977    Uiso  ? Fe
   Fe11       1.0     0.500000     0.499411     0.333977    Uiso  ? Fe
   Fe12       1.0     0.500000     0.999411     0.333977    Uiso  ? Fe
   Fe13       1.0     0.083494     0.249410     0.166989    Uiso  ? Fe
   Fe14       1.0     0.083494     0.749410     0.166989    Uiso  ? Fe
   Fe15       1.0     0.583494     0.249410     0.166989    Uiso  ? Fe
   Fe16       1.0     0.583494     0.749410     0.166989    Uiso  ? Fe
   Fe17       1.0     0.250000     0.249410     0.166023    Uiso  ? Fe
   Fe18       1.0     0.250000     0.749410     0.166023    Uiso  ? Fe
   Fe19       1.0     0.750000     0.249410     0.166023    Uiso  ? Fe
   Fe20       1.0     0.750000     0.749410     0.166023    Uiso  ? Fe
   Fe21       1.0     0.166506     0.249410     0.666988    Uiso  ? Fe
   Fe22       1.0     0.166506     0.749410     0.666988    Uiso  ? Fe
   Fe23       1.0     0.666506     0.249410     0.666988    Uiso  ? Fe
   Fe24       1.0     0.666506     0.749410     0.666988    Uiso  ? Fe
   Fe25       1.0     0.083494     0.499411     0.833012    Uiso  ? Fe
   Fe26       1.0     0.083494     0.999411     0.833012    Uiso  ? Fe
   Fe27       1.0     0.583494     0.499411     0.833012    Uiso  ? Fe
   Fe28       1.0     0.583494     0.999411     0.833012    Uiso  ? Fe
   Fe29       1.0     0.416506     0.499411     0.833012    Uiso  ? Fe
   Fe30       1.0     0.416506     0.999411     0.833012    Uiso  ? Fe
   Fe31       1.0     0.916506     0.499411     0.833012    Uiso  ? Fe
   Fe32       1.0     0.916506     0.999411     0.833012    Uiso  ? Fe
   Fe33       1.0     0.416506     0.249410     0.166989    Uiso  ? Fe
   Fe34       1.0     0.416506     0.749410     0.166989    Uiso  ? Fe
   Fe35       1.0     0.916506     0.249410     0.166989    Uiso  ? Fe
   Fe36       1.0     0.916506     0.749410     0.166989    Uiso  ? Fe
   Fe37       1.0     0.250000     0.499411     0.833977    Uiso  ? Fe
   Fe38       1.0     0.250000     0.999411     0.833977    Uiso  ? Fe
   Fe39       1.0     0.750000     0.499411     0.833977    Uiso  ? Fe
   Fe40       1.0     0.750000     0.999411     0.833977    Uiso  ? Fe
   Fe41       1.0     0.333494     0.249410     0.666988    Uiso  ? Fe
   Fe42       1.0     0.333494     0.749410     0.666988    Uiso  ? Fe
   Fe43       1.0     0.833494     0.249410     0.666988    Uiso  ? Fe
   Fe44       1.0     0.833494     0.749410     0.666988    Uiso  ? Fe
   LuFe45       1.0     0.333494     0.499411     0.333012    Uiso  ? Lu
   Fe46       1.0     0.333494     0.999411     0.333012    Uiso  ? Fe
   Fe47       1.0     0.833494     0.499411     0.333012    Uiso  ? Fe
   Fe48       1.0     0.833494     0.999411     0.333012    Uiso  ? Fe
   O1         1.0     0.000000     0.165936     0.695266    Uiso  ? O
   O2         1.0     0.000000     0.665936     0.695266    Uiso  ? O
   O3         1.0     0.500000     0.165936     0.695266    Uiso  ? O
   O4         1.0     0.500000     0.665936     0.695266    Uiso  ? O
   O5         1.0     0.173817     0.415936     0.347633    Uiso  ? O
   O6         1.0     0.173817     0.915936     0.347633    Uiso  ? O
   O7         1.0     0.673817     0.415936     0.347633    Uiso  ? O
   O8         1.0     0.673817     0.915936     0.347633    Uiso  ? O
   O9         1.0     0.000000     0.415936     0.304734    Uiso  ? O
   O10        1.0     0.000000     0.915936     0.304734    Uiso  ? O
   O11        1.0     0.500000     0.415936     0.304734    Uiso  ? O
   O12        1.0     0.500000     0.915936     0.304734    Uiso  ? O
   O13        1.0     0.076183     0.165936     0.152367    Uiso  ? O
   O14        1.0     0.076183     0.665936     0.152367    Uiso  ? O
   O15        1.0     0.576183     0.165936     0.152367    Uiso  ? O
   O16        1.0     0.576183     0.665936     0.152367    Uiso  ? O
   O17        1.0     0.000000     0.081947     0.361864    Uiso  ? O
   O18        1.0     0.000000     0.581947     0.361864    Uiso  ? O
   O19        1.0     0.500000     0.081947     0.361864    Uiso  ? O
   O20        1.0     0.500000     0.581947     0.361864    Uiso  ? O
   O21        1.0     0.090466     0.331947     0.180932    Uiso  ? O
   O22        1.0     0.090466     0.831947     0.180932    Uiso  ? O
   O23        1.0     0.590466     0.331947     0.180932    Uiso  ? O
   O24        1.0     0.590466     0.831947     0.180932    Uiso  ? O
   O25        1.0     0.000000     0.331947     0.638136    Uiso  ? O
   O26        1.0     0.000000     0.831947     0.638136    Uiso  ? O
   O27        1.0     0.500000     0.331947     0.638136    Uiso  ? O
   O28        1.0     0.500000     0.831947     0.638136    Uiso  ? O
   O29        1.0     0.159534     0.081947     0.319068    Uiso  ? O
   O30        1.0     0.159534     0.581947     0.319068    Uiso  ? O
   O31        1.0     0.659534     0.081947     0.319068    Uiso  ? O
   O32        1.0     0.659534     0.581947     0.319068    Uiso  ? O
   O33        1.0     0.000000     0.012497     0.000000    Uiso  ? O
   O34        1.0     0.000000     0.512497     0.000000    Uiso  ? O
   O35        1.0     0.500000     0.012497     0.000000    Uiso  ? O
   O36        1.0     0.500000     0.512497     0.000000    Uiso  ? O
   O37        1.0     0.000000     0.262498     0.000000    Uiso  ? O
   O38        1.0     0.000000     0.762498     0.000000    Uiso  ? O
   O39        1.0     0.500000     0.262498     0.000000    Uiso  ? O
   O40        1.0     0.500000     0.762498     0.000000    Uiso  ? O
   O41        1.0     0.166666     0.488286     0.000000    Uiso  ? O
   O42        1.0     0.166666     0.988286     0.000000    Uiso  ? O
   O43        1.0     0.666666     0.488286     0.000000    Uiso  ? O
   O44        1.0     0.666666     0.988286     0.000000    Uiso  ? O
   O45        1.0     0.083333     0.238285     0.500000    Uiso  ? O
   O46        1.0     0.083333     0.738285     0.500000    Uiso  ? O
   O47        1.0     0.583333     0.238285     0.500000    Uiso  ? O
   O48        1.0     0.583333     0.738285     0.500000    Uiso  ? O
   O49        1.0     0.166666     0.238285     0.000000    Uiso  ? O
   O50        1.0     0.166666     0.738285     0.000000    Uiso  ? O
   O51        1.0     0.666666     0.238285     0.000000    Uiso  ? O
   O52        1.0     0.666666     0.738285     0.000000    Uiso  ? O
   O53        1.0     0.083333     0.488286     0.500000    Uiso  ? O
   O54        1.0     0.083333     0.988286     0.500000    Uiso  ? O
   O55        1.0     0.583333     0.488286     0.500000    Uiso  ? O
   O56        1.0     0.583333     0.988286     0.500000    Uiso  ? O
   O57        1.0     0.250000     0.165936     0.195266    Uiso  ? O
   O58        1.0     0.250000     0.665936     0.195266    Uiso  ? O
   O59        1.0     0.750000     0.165936     0.195266    Uiso  ? O
   O60        1.0     0.750000     0.665936     0.195266    Uiso  ? O
   O61        1.0     0.250000     0.331947     0.138136    Uiso  ? O
   O62        1.0     0.250000     0.831947     0.138136    Uiso  ? O
   O63        1.0     0.750000     0.331947     0.138136    Uiso  ? O
   O64        1.0     0.750000     0.831947     0.138136    Uiso  ? O
   O65        1.0     0.333333     0.238285     0.000000    Uiso  ? O
   O66        1.0     0.333333     0.738285     0.000000    Uiso  ? O
   O67        1.0     0.833333     0.238285     0.000000    Uiso  ? O
   O68        1.0     0.833333     0.738285     0.000000    Uiso  ? O
   O69        1.0     0.333333     0.488286     0.000000    Uiso  ? O
   O70        1.0     0.333333     0.988286     0.000000    Uiso  ? O
   O71        1.0     0.833333     0.488286     0.000000    Uiso  ? O
   O72        1.0     0.833333     0.988286     0.000000    Uiso  ? O
   O73        1.0     0.173817     0.165936     0.652367    Uiso  ? O
   O74        1.0     0.173817     0.665936     0.652367    Uiso  ? O
   O75        1.0     0.673817     0.165936     0.652367    Uiso  ? O
   O76        1.0     0.673817     0.665936     0.652367    Uiso  ? O
   O77        1.0     0.076183     0.415936     0.847633    Uiso  ? O
   O78        1.0     0.076183     0.915936     0.847633    Uiso  ? O
   O79        1.0     0.576183     0.415936     0.847633    Uiso  ? O
   O80        1.0     0.576183     0.915936     0.847633    Uiso  ? O
   O81        1.0     0.090466     0.081947     0.819068    Uiso  ? O
   O82        1.0     0.090466     0.581947     0.819068    Uiso  ? O
   O83        1.0     0.590466     0.081947     0.819068    Uiso  ? O
   O84        1.0     0.590466     0.581947     0.819068    Uiso  ? O
   O85        1.0     0.159534     0.331947     0.680932    Uiso  ? O
   O86        1.0     0.159534     0.831947     0.680932    Uiso  ? O
   O87        1.0     0.659534     0.331947     0.680932    Uiso  ? O
   O88        1.0     0.659534     0.831947     0.680932    Uiso  ? O
   O89        1.0     0.423817     0.415936     0.847633    Uiso  ? O
   O90        1.0     0.423817     0.915936     0.847633    Uiso  ? O
   O91        1.0     0.923817     0.415936     0.847633    Uiso  ? O
   O92        1.0     0.923817     0.915936     0.847633    Uiso  ? O
   O93        1.0     0.423817     0.165936     0.152367    Uiso  ? O
   O94        1.0     0.423817     0.665936     0.152367    Uiso  ? O
   O95        1.0     0.923817     0.165936     0.152367    Uiso  ? O
   O96        1.0     0.923817     0.665936     0.152367    Uiso  ? O
   O97        1.0     0.250000     0.415936     0.804734    Uiso  ? O
   O98        1.0     0.250000     0.915936     0.804734    Uiso  ? O
   O99        1.0     0.750000     0.415936     0.804734    Uiso  ? O
   O100       1.0     0.750000     0.915936     0.804734    Uiso  ? O
   O101       1.0     0.326183     0.165936     0.652367    Uiso  ? O
   O102       1.0     0.326183     0.665936     0.652367    Uiso  ? O
   O103       1.0     0.826183     0.165936     0.652367    Uiso  ? O
   O104       1.0     0.826183     0.665936     0.652367    Uiso  ? O
   O105       1.0     0.326183     0.415936     0.347633    Uiso  ? O
   O106       1.0     0.326183     0.915936     0.347633    Uiso  ? O
   O107       1.0     0.826183     0.415936     0.347633    Uiso  ? O
   O108       1.0     0.826183     0.915936     0.347633    Uiso  ? O
   O109       1.0     0.250000     0.081947     0.861864    Uiso  ? O
   O110       1.0     0.250000     0.581947     0.861864    Uiso  ? O
   O111       1.0     0.750000     0.081947     0.861864    Uiso  ? O
   O112       1.0     0.750000     0.581947     0.861864    Uiso  ? O
   O113       1.0     0.340466     0.331947     0.680932    Uiso  ? O
   O114       1.0     0.340466     0.831947     0.680932    Uiso  ? O
   O115       1.0     0.840466     0.331947     0.680932    Uiso  ? O
   O116       1.0     0.840466     0.831947     0.680932    Uiso  ? O
   O117       1.0     0.340466     0.081947     0.319068    Uiso  ? O
   O118       1.0     0.340466     0.581947     0.319068    Uiso  ? O
   O119       1.0     0.840466     0.081947     0.319068    Uiso  ? O
   O120       1.0     0.840466     0.581947     0.319068    Uiso  ? O
   O121       1.0     0.409534     0.081947     0.819068    Uiso  ? O
   O122       1.0     0.409534     0.581947     0.819068    Uiso  ? O
   O123       1.0     0.909534     0.081947     0.819068    Uiso  ? O
   O124       1.0     0.909534     0.581947     0.819068    Uiso  ? O
   O125       1.0     0.409534     0.331947     0.180932    Uiso  ? O
   O126       1.0     0.409534     0.831947     0.180932    Uiso  ? O
   O127       1.0     0.909534     0.331947     0.180932    Uiso  ? O
   O128       1.0     0.909534     0.831947     0.180932    Uiso  ? O
   O129       1.0     0.250000     0.012497     0.500000    Uiso  ? O
   O130       1.0     0.250000     0.512497     0.500000    Uiso  ? O
   O131       1.0     0.750000     0.012497     0.500000    Uiso  ? O
   O132       1.0     0.750000     0.512497     0.500000    Uiso  ? O
   O133       1.0     0.250000     0.262498     0.500000    Uiso  ? O
   O134       1.0     0.250000     0.762498     0.500000    Uiso  ? O
   O135       1.0     0.750000     0.262498     0.500000    Uiso  ? O
   O136       1.0     0.750000     0.762498     0.500000    Uiso  ? O
   O137       1.0     0.416667     0.488286     0.500000    Uiso  ? O
   O138       1.0     0.416667     0.988286     0.500000    Uiso  ? O
   O139       1.0     0.916667     0.488286     0.500000    Uiso  ? O
   O140       1.0     0.916667     0.988286     0.500000    Uiso  ? O
   O141       1.0     0.416667     0.238285     0.500000    Uiso  ? O
   O142       1.0     0.416667     0.738285     0.500000    Uiso  ? O
   O143       1.0     0.916667     0.238285     0.500000    Uiso  ? O
   O144       1.0     0.916667     0.738285     0.500000    Uiso  ? O
